Circuit: * C:\users\janhenrik\Meine Dokumente\STM32Cube\Enlighted-Otter\HW\Sim\Boost.asc

Limiting rise time of source v2 to 3.73333e-008
Limiting fall time of source v2 to 3.73333e-008
Direct Newton iteration for .op point succeeded.

Date: Tue Aug 14 14:00:06 2018
Total elapsed time: 1.214 seconds.

tnom = 27
temp = 27
method = modified trap
totiter = 593081
traniter = 593076
tranpoints = 163405
accept = 117711
rejected = 45694
matrix size = 11
fillins = 0
solver = Normal
Matrix Compiler1: 476 bytes object code size  0.5/0.4/[0.4]
Matrix Compiler2: 779 bytes object code size  0.4/0.4/[0.4]

