Circuit: * C:\users\janhenrik\Meine Dokumente\STM32Cube\Enlighted-Otter\HW\Sim\Boost.asc

Limiting rise time of source v2 to 1.86667e-007
Limiting fall time of source v2 to 1.86667e-007
Direct Newton iteration for .op point succeeded.
.step freq=150000
.step freq=175000
.step freq=200000
.step freq=225000
.step freq=250000
.step freq=275000
.step freq=300000
.step freq=325000
.step freq=350000
.step freq=375000
.step freq=400000
.step freq=425000
.step freq=450000
.step freq=475000
.step freq=500000
.step freq=525000
.step freq=550000
.step freq=575000
.step freq=600000
.step freq=625000
.step freq=650000
.step freq=675000
.step freq=700000
.step freq=725000
.step freq=750000
.step freq=775000
.step freq=800000
.step freq=825000
.step freq=850000
.step freq=875000
.step freq=900000
.step freq=925000
.step freq=950000


Measurement: pin
  step	RMS(-v(vin)*i(v1))	FROM	TO
     1	13.9324	0	5e-005
     2	12.4124	0	5e-005
     3	10.4485	0	4.99998e-005
     4	9.48748	0	5e-005
     5	9.0046	0	5e-005
     6	8.09646	0	5e-005
     7	7.23827	0	5e-005
     8	6.56761	0	5e-005
     9	6.04009	0	5e-005
    10	5.52357	0	5e-005
    11	5.04741	0	4.99998e-005
    12	4.71113	0	5e-005
    13	4.56849	0	5e-005
    14	4.54915	0	5e-005
    15	4.46567	0	5e-005
    16	4.41812	0	5e-005
    17	4.3923	0	5e-005
    18	4.34711	0	5e-005
    19	4.29742	0	5e-005
    20	4.27321	0	5e-005
    21	4.2633	0	5e-005
    22	4.23721	0	5e-005
    23	4.20518	0	5e-005
    24	4.19481	0	5e-005
    25	4.1918	0	5e-005
    26	4.17661	0	5e-005
    27	4.15767	0	4.99999e-005
    28	4.15202	0	5e-005
    29	4.15283	0	5e-005
    30	4.14477	0	5e-005
    31	4.13223	0	5e-005
    32	4.13111	0	5e-005
    33	4.13452	0	5e-005

Measurement: pout
  step	RMS(v(vout)*i(r1))	FROM	TO
     1	9.63723	0	5e-005
     2	8.81168	0	5e-005
     3	7.6375	0	4.99998e-005
     4	7.13483	0	5e-005
     5	6.77649	0	5e-005
     6	6.17586	0	5e-005
     7	5.62811	0	5e-005
     8	5.15806	0	5e-005
     9	4.75462	0	5e-005
    10	4.40545	0	5e-005
    11	4.09563	0	4.99998e-005
    12	3.83525	0	5e-005
    13	3.65629	0	5e-005
    14	3.59594	0	5e-005
    15	3.59241	0	5e-005
    16	3.59289	0	5e-005
    17	3.59429	0	5e-005
    18	3.59606	0	5e-005
    19	3.59815	0	5e-005
    20	3.60043	0	5e-005
    21	3.60295	0	5e-005
    22	3.60551	0	5e-005
    23	3.60829	0	5e-005
    24	3.61109	0	5e-005
    25	3.61396	0	5e-005
    26	3.61704	0	5e-005
    27	3.62025	0	4.99999e-005
    28	3.62357	0	5e-005
    29	3.62668	0	5e-005
    30	3.63017	0	5e-005
    31	3.63365	0	5e-005
    32	3.63692	0	5e-005
    33	3.64069	0	5e-005

Measurement: eff
  step	pout/pin
     1	0.691713
     2	0.709908
     3	0.730966
     4	0.752026
     5	0.752559
     6	0.762785
     7	0.777549
     8	0.785378
     9	0.787177
    10	0.797574
    11	0.811431
    12	0.814084
    13	0.800327
    14	0.790464
    15	0.804451
    16	0.813219
    17	0.818317
    18	0.82723
    19	0.83728
    20	0.842557
    21	0.845107
    22	0.850916
    23	0.858058
    24	0.860849
    25	0.862151
    26	0.866024
    27	0.87074
    28	0.872724
    29	0.873301
    30	0.875843
    31	0.879344
    32	0.880373
    33	0.88056


Date: Tue Aug 14 14:36:02 2018
Total elapsed time: 19.244 seconds.

tnom = 27
temp = 27
method = modified trap
totiter = 718373
traniter = 718368
tranpoints = 196373
accept = 142693
rejected = 53680
matrix size = 11
fillins = 0
solver = Normal
Matrix Compiler1: 476 bytes object code size  0.5/0.4/[0.4]
Matrix Compiler2: 779 bytes object code size  0.4/0.4/[0.4]

